<input>
    <net-file value="network_tls.net.xml"/>
    <route-files value="routes.rou.xml"/>
</input>
